 Processing SWATGenX 
2025-01-16 11:36:52,830 [ERROR] Site number 04090004 is not among FPS lists
2025-01-16 11:36:52,831 [INFO] Logging to /data/SWATGenXApp/codes/SWATGenX/SWATGenXCommand.log
2025-01-16 11:36:53,592 [INFO] Logging to /data/SWATGenXApp/codes/SWATGenX/SWATGenXCommand.log
2025-01-16 11:36:53,592 [INFO] SWATGenXCore: Starting the SWATGenX model for 04090004
2025-01-16 11:36:53,780 [INFO] SWATGenXCore: Beginning the extraction of the model for 04090004
2025-01-16 11:36:56,709 [INFO] Created 13 records
2025-01-16 11:36:59,354 [INFO] Created 3,320 records
2025-01-16 11:36:59,423 [INFO] Created 3,320 records
2025-01-16 11:36:59,444 [INFO] Created 168 records
2025-01-16 11:37:02,854 [INFO] Created 49 records
2025-01-16 11:37:02,914 [INFO] Created 3,320 records
2025-01-16 11:37:02,979 [INFO] Created 3,320 records
2025-01-16 11:37:03,077 [INFO] Created 1 records
2025-01-16 11:37:03,579 [INFO] First Stage completed for 04090004, 0409
2025-01-16 11:38:39,510 [INFO] QSWAT+ processes are completed for 04090004, 0409
