Logging to /data/SWATGenXApp/codes/SWATGenX/SWATGenX/SWATGenXCommand.log
LEVEL: huc12, station_name: 09363050
Logging to /data/SWATGenXApp/codes/SWATGenX/SWATGenX/SWATGenXCommand.log
Logging to /data/SWATGenXApp/codes/SWATGenX/SWATGenX/SWATGenXCommand.log
SWATGenXCore: Starting the SWATGenX model for 09363050
SWATGenXCore: Starting the SWATGenX model for 09363050
SWATGenXCore: Beginning the extraction of the model for 09363050
SWATGenXCore: Beginning the extraction of the model for 09363050
First Stage completed for 09363050, 1408
First Stage completed for 09363050, 1408
QSWAT+ processes are completed for 09363050, 1408
QSWAT+ processes are completed for 09363050, 1408
Model extraction completed for 09363050
Model extraction completed for 09363050
NSRDB extraction completed for 09363050
NSRDB extraction completed for 09363050
