Logging to /data/SWATGenXApp/codes/SWATGenX/SWATGenX/SWATGenXCommand.log
LEVEL: huc12, station_name: 04166000
Logging to /data/SWATGenXApp/codes/SWATGenX/SWATGenX/SWATGenXCommand.log
Logging to /data/SWATGenXApp/codes/SWATGenX/SWATGenX/SWATGenXCommand.log
SWATGenXCore: Starting the SWATGenX model for 04166000
SWATGenXCore: Starting the SWATGenX model for 04166000
SWATGenXCore: Beginning the extraction of the model for 04166000
SWATGenXCore: Beginning the extraction of the model for 04166000
The model extraction has failed for 04166000 before (PRISM extracted but streamflow shapefile does not exist)
The model extraction has failed for 04166000 before (PRISM extracted but streamflow shapefile does not exist)
First Stage completed for 04166000, 0409
First Stage completed for 04166000, 0409
Error in running QSWAT+ for 04166000: [Errno 2] No such file or directory: 'runQSWATPlus.sh/04166000_runHUCProject.sh'
Error in running QSWAT+ for 04166000: [Errno 2] No such file or directory: 'runQSWATPlus.sh/04166000_runHUCProject.sh'
