print.prt: written by SWAT+ editor v2.3.3 on 2023-11-08 07:51 for SWAT+ rev.60.5.7
nyskip      day_start  yrc_start  day_end   yrc_end   interval  
3           0         0         0         0         0
aa_int_cnt  
0           
csvout        dbout         cdfout        
y             n             n             
crop_yld      mgtout        hydcon        fdcout        
b             n             n             n             
objects                  daily       monthly        yearly         avann  
basin_wb    y    y    y    y
basin_nb    y    y    y    y
basin_ls    y    y    y    y
basin_pw    y    y    y    y
basin_aqu    y    y    y    y
basin_res    y    y    y    y
basin_cha    y    y    y    y
basin_sd_cha    y    y    y    y
basin_psc    y    y    y    y
region_wb    y    y    y    y
region_nb    y    y    y    y
region_ls    y    y    y    y
region_pw    y    y    y    y
region_aqu    y    y    y    y
region_res    y    y    y    y
region_sd_cha    y    y    y    y
region_psc    y    y    y    y
water_allo    y    y    y    y
lsunit_wb    y    y    y    y
lsunit_nb    y    y    y    y
lsunit_ls    y    y    y    y
lsunit_pw    y    y    y    y
hru_wb    y    y    y    y
hru_nb    y    y    y    y
hru_ls    y    y    y    y
hru_pw    y    y    y    y
hru-lte_wb    y    y    y    y
hru-lte_nb    y    y    y    y
hru-lte_ls    y    y    y    y
hru-lte_pw    y    y    y    y
channel    y    y    y    y
channel_sd    y    y    y    y
aquifer    y    y    y    y
reservoir    y    y    y    y
recall    y    y    y    y
hyd    y    y    y    y
ru    y    y    y    y
pest    y    y    y    y
