Logging to /data/SWATGenXApp/codes/SWATGenX/SWATGenXCommand.log
Logging to /data/SWATGenXApp/codes/SWATGenX/SWATGenXCommand.log
Logging to /data/SWATGenXApp/codes/SWATGenX/SWATGenXCommand.log
SWATGenXCore: Starting the SWATGenX model for 04090004
SWATGenXCore: Starting the SWATGenX model for 04090004
SWATGenXCore: Beginning the extraction of the model for 04090004
SWATGenXCore: Beginning the extraction of the model for 04090004
First Stage completed for 04090004, 0409
First Stage completed for 04090004, 0409
QSWAT+ processes are completed for 04090004, 0409
QSWAT+ processes are completed for 04090004, 0409
