Logging to /data/SWATGenXApp/codes/SWATGenX/SWATGenXCommand.log
LEVEL: huc12, station_name: 08088000
Logging to /data/SWATGenXApp/codes/SWATGenX/SWATGenXCommand.log
Logging to /data/SWATGenXApp/codes/SWATGenX/SWATGenXCommand.log
SWATGenXCore: Starting the SWATGenX model for 08088000
SWATGenXCore: Starting the SWATGenX model for 08088000
SWATGenXCore: Beginning the extraction of the model for 08088000
SWATGenXCore: Beginning the extraction of the model for 08088000
First Stage completed for 08088000, 1206
First Stage completed for 08088000, 1206
HRU2 shapefile does not exist for 08088000 after running QSWAT+
HRU2 shapefile does not exist for 08088000 after running QSWAT+
