Logging to /data/SWATGenXApp/codes/SWATGenX/SWATGenXCommand.log
LEVEL: huc12, station_name: 04166100
Logging to /data/SWATGenXApp/codes/SWATGenX/SWATGenXCommand.log
Logging to /data/SWATGenXApp/codes/SWATGenX/SWATGenXCommand.log
SWATGenXCore: Starting the SWATGenX model for 04166100
SWATGenXCore: Starting the SWATGenX model for 04166100
SWATGenXCore: Beginning the extraction of the model for 04166100
SWATGenXCore: Beginning the extraction of the model for 04166100
The model extraction has failed for 04166100 before (PRISM extracted but streamflow shapefile does not exist)
The model extraction has failed for 04166100 before (PRISM extracted but streamflow shapefile does not exist)
First Stage completed for 04166100, 0409
First Stage completed for 04166100, 0409
QSWAT+ processes are completed for 04166100, 0409
QSWAT+ processes are completed for 04166100, 0409
