Logging to /data/SWATGenXApp/codes/SWATGenX/SWATGenXCommand.log
LEVEL: huc12, station_name: 04292000
Logging to /data/SWATGenXApp/codes/SWATGenX/SWATGenXCommand.log
Logging to /data/SWATGenXApp/codes/SWATGenX/SWATGenXCommand.log
SWATGenXCore: Starting the SWATGenX model for 04292000
SWATGenXCore: Starting the SWATGenX model for 04292000
SWATGenXCore: Beginning the extraction of the model for 04292000
SWATGenXCore: Beginning the extraction of the model for 04292000
First Stage completed for 04292000, 0415
First Stage completed for 04292000, 0415
QSWAT+ processes are completed for 04292000, 0415
QSWAT+ processes are completed for 04292000, 0415
